
---------- Begin Simulation Statistics ----------
simSeconds                                   0.000866                       # Number of seconds simulated (Second)
simTicks                                    866329803                       # Number of ticks simulated (Tick)
finalTick                                  1121558652                       # Number of ticks from beginning of simulation (restored from checkpoints and never reset) (Tick)
simFreq                                  1000000000000                       # The number of ticks per simulated second ((Tick/Second))
hostSeconds                                     12.24                       # Real time elapsed on the host (Second)
hostTickRate                                 70787132                       # The number of ticks simulated per host second (ticks/s) ((Tick/Second))
hostMemory                                    1594476                       # Number of bytes of host memory used (Byte)
simInsts                                      1449427                       # Number of instructions simulated (Count)
simOps                                        2274380                       # Number of ops (including micro ops) simulated (Count)
hostInstRate                                   118430                       # Simulator instruction rate (inst/s) ((Count/Second))
hostOpRate                                     185836                       # Simulator op (including micro ops) rate (op/s) ((Count/Second))
board.cache_hierarchy.ruby_system.delayHistogram::bucket_size            2                       # delay histogram for all message (Unspecified)
board.cache_hierarchy.ruby_system.delayHistogram::max_bucket           19                       # delay histogram for all message (Unspecified)
board.cache_hierarchy.ruby_system.delayHistogram::samples        12350                       # delay histogram for all message (Unspecified)
board.cache_hierarchy.ruby_system.delayHistogram::mean     0.112065                       # delay histogram for all message (Unspecified)
board.cache_hierarchy.ruby_system.delayHistogram::stdev     0.946752                       # delay histogram for all message (Unspecified)
board.cache_hierarchy.ruby_system.delayHistogram |       12164     98.49%     98.49% |          12      0.10%     98.59% |          13      0.11%     98.70% |          12      0.10%     98.79% |         141      1.14%     99.94% |           2      0.02%     99.95% |           1      0.01%     99.96% |           3      0.02%     99.98% |           1      0.01%     99.99% |           1      0.01%    100.00% # delay histogram for all message (Unspecified)
board.cache_hierarchy.ruby_system.delayHistogram::total        12350                       # delay histogram for all message (Unspecified)
board.cache_hierarchy.ruby_system.m_outstandReqHistSeqr::bucket_size            2                       (Unspecified)
board.cache_hierarchy.ruby_system.m_outstandReqHistSeqr::max_bucket           19                       (Unspecified)
board.cache_hierarchy.ruby_system.m_outstandReqHistSeqr::samples      1120196                       (Unspecified)
board.cache_hierarchy.ruby_system.m_outstandReqHistSeqr::mean     1.075547                       (Unspecified)
board.cache_hierarchy.ruby_system.m_outstandReqHistSeqr::gmean     1.052551                       (Unspecified)
board.cache_hierarchy.ruby_system.m_outstandReqHistSeqr::stdev     0.289227                       (Unspecified)
board.cache_hierarchy.ruby_system.m_outstandReqHistSeqr |     1038987     92.75%     92.75% |       80438      7.18%     99.93% |         581      0.05%     99.98% |         103      0.01%     99.99% |          50      0.00%    100.00% |          17      0.00%    100.00% |           9      0.00%    100.00% |           6      0.00%    100.00% |           5      0.00%    100.00% |           0      0.00%    100.00% (Unspecified)
board.cache_hierarchy.ruby_system.m_outstandReqHistSeqr::total      1120196                       (Unspecified)
board.cache_hierarchy.ruby_system.m_latencyHistSeqr::bucket_size          128                       (Unspecified)
board.cache_hierarchy.ruby_system.m_latencyHistSeqr::max_bucket         1279                       (Unspecified)
board.cache_hierarchy.ruby_system.m_latencyHistSeqr::samples      1120257                       (Unspecified)
board.cache_hierarchy.ruby_system.m_latencyHistSeqr::mean     1.187874                       (Unspecified)
board.cache_hierarchy.ruby_system.m_latencyHistSeqr::gmean     1.010167                       (Unspecified)
board.cache_hierarchy.ruby_system.m_latencyHistSeqr::stdev     5.106784                       (Unspecified)
board.cache_hierarchy.ruby_system.m_latencyHistSeqr |     1119815     99.96%     99.96% |         420      0.04%    100.00% |          18      0.00%    100.00% |           0      0.00%    100.00% |           0      0.00%    100.00% |           0      0.00%    100.00% |           0      0.00%    100.00% |           0      0.00%    100.00% |           0      0.00%    100.00% |           4      0.00%    100.00% (Unspecified)
board.cache_hierarchy.ruby_system.m_latencyHistSeqr::total      1120257                       (Unspecified)
board.cache_hierarchy.ruby_system.m_hitLatencyHistSeqr::bucket_size           32                       (Unspecified)
board.cache_hierarchy.ruby_system.m_hitLatencyHistSeqr::max_bucket          319                       (Unspecified)
board.cache_hierarchy.ruby_system.m_hitLatencyHistSeqr::samples      1117553                       (Unspecified)
board.cache_hierarchy.ruby_system.m_hitLatencyHistSeqr::mean     1.000252                       (Unspecified)
board.cache_hierarchy.ruby_system.m_hitLatencyHistSeqr::gmean     1.000046                       (Unspecified)
board.cache_hierarchy.ruby_system.m_hitLatencyHistSeqr::stdev     0.166190                       (Unspecified)
board.cache_hierarchy.ruby_system.m_hitLatencyHistSeqr |     1117551    100.00%    100.00% |           1      0.00%    100.00% |           0      0.00%    100.00% |           0      0.00%    100.00% |           0      0.00%    100.00% |           1      0.00%    100.00% |           0      0.00%    100.00% |           0      0.00%    100.00% |           0      0.00%    100.00% |           0      0.00%    100.00% (Unspecified)
board.cache_hierarchy.ruby_system.m_hitLatencyHistSeqr::total      1117553                       (Unspecified)
board.cache_hierarchy.ruby_system.m_missLatencyHistSeqr::bucket_size          128                       (Unspecified)
board.cache_hierarchy.ruby_system.m_missLatencyHistSeqr::max_bucket         1279                       (Unspecified)
board.cache_hierarchy.ruby_system.m_missLatencyHistSeqr::samples         2704                       (Unspecified)
board.cache_hierarchy.ruby_system.m_missLatencyHistSeqr::mean    78.731139                       (Unspecified)
board.cache_hierarchy.ruby_system.m_missLatencyHistSeqr::gmean    64.825592                       (Unspecified)
board.cache_hierarchy.ruby_system.m_missLatencyHistSeqr::stdev    69.046092                       (Unspecified)
board.cache_hierarchy.ruby_system.m_missLatencyHistSeqr |        2263     83.69%     83.69% |         419     15.50%     99.19% |          18      0.67%     99.85% |           0      0.00%     99.85% |           0      0.00%     99.85% |           0      0.00%     99.85% |           0      0.00%     99.85% |           0      0.00%     99.85% |           0      0.00%     99.85% |           4      0.15%    100.00% (Unspecified)
board.cache_hierarchy.ruby_system.m_missLatencyHistSeqr::total         2704                       (Unspecified)
board.cache_hierarchy.ruby_system.delayVCHist.vnet_0::bucket_size            2                       # delay histogram for vnet_0 (Unspecified)
board.cache_hierarchy.ruby_system.delayVCHist.vnet_0::max_bucket           19                       # delay histogram for vnet_0 (Unspecified)
board.cache_hierarchy.ruby_system.delayVCHist.vnet_0::samples         6669                       # delay histogram for vnet_0 (Unspecified)
board.cache_hierarchy.ruby_system.delayVCHist.vnet_0::mean     0.129255                       # delay histogram for vnet_0 (Unspecified)
board.cache_hierarchy.ruby_system.delayVCHist.vnet_0::stdev     1.019647                       # delay histogram for vnet_0 (Unspecified)
board.cache_hierarchy.ruby_system.delayVCHist.vnet_0 |        6560     98.37%     98.37% |           3      0.04%     98.41% |           1      0.01%     98.43% |           3      0.04%     98.47% |          98      1.47%     99.94% |           1      0.01%     99.96% |           1      0.01%     99.97% |           2      0.03%    100.00% |           0      0.00%    100.00% |           0      0.00%    100.00% # delay histogram for vnet_0 (Unspecified)
board.cache_hierarchy.ruby_system.delayVCHist.vnet_0::total         6669                       # delay histogram for vnet_0 (Unspecified)
board.cache_hierarchy.ruby_system.delayVCHist.vnet_1::bucket_size            2                       # delay histogram for vnet_1 (Unspecified)
board.cache_hierarchy.ruby_system.delayVCHist.vnet_1::max_bucket           19                       # delay histogram for vnet_1 (Unspecified)
board.cache_hierarchy.ruby_system.delayVCHist.vnet_1::samples         5264                       # delay histogram for vnet_1 (Unspecified)
board.cache_hierarchy.ruby_system.delayVCHist.vnet_1::mean     0.099164                       # delay histogram for vnet_1 (Unspecified)
board.cache_hierarchy.ruby_system.delayVCHist.vnet_1::stdev     0.885657                       # delay histogram for vnet_1 (Unspecified)
board.cache_hierarchy.ruby_system.delayVCHist.vnet_1 |        5187     98.54%     98.54% |           9      0.17%     98.71% |          12      0.23%     98.94% |           9      0.17%     99.11% |          43      0.82%     99.92% |           1      0.02%     99.94% |           0      0.00%     99.94% |           1      0.02%     99.96% |           1      0.02%     99.98% |           1      0.02%    100.00% # delay histogram for vnet_1 (Unspecified)
board.cache_hierarchy.ruby_system.delayVCHist.vnet_1::total         5264                       # delay histogram for vnet_1 (Unspecified)
board.cache_hierarchy.ruby_system.delayVCHist.vnet_2::bucket_size            1                       # delay histogram for vnet_2 (Unspecified)
board.cache_hierarchy.ruby_system.delayVCHist.vnet_2::max_bucket            9                       # delay histogram for vnet_2 (Unspecified)
board.cache_hierarchy.ruby_system.delayVCHist.vnet_2::samples          417                       # delay histogram for vnet_2 (Unspecified)
board.cache_hierarchy.ruby_system.delayVCHist.vnet_2 |         417    100.00%    100.00% |           0      0.00%    100.00% |           0      0.00%    100.00% |           0      0.00%    100.00% |           0      0.00%    100.00% |           0      0.00%    100.00% |           0      0.00%    100.00% |           0      0.00%    100.00% |           0      0.00%    100.00% |           0      0.00%    100.00% # delay histogram for vnet_2 (Unspecified)
board.cache_hierarchy.ruby_system.delayVCHist.vnet_2::total          417                       # delay histogram for vnet_2 (Unspecified)
board.cache_hierarchy.ruby_system.Directory_Controller.Fetch          441      0.00%      0.00% (Unspecified)
board.cache_hierarchy.ruby_system.Directory_Controller.Memory_Data          441      0.00%      0.00% (Unspecified)
board.cache_hierarchy.ruby_system.Directory_Controller.I.Fetch          441      0.00%      0.00% (Unspecified)
board.cache_hierarchy.ruby_system.Directory_Controller.IM.Memory_Data          441      0.00%      0.00% (Unspecified)
board.cache_hierarchy.ruby_system.L1Cache_Controller.Load |        1011      0.44%      0.44% |      229941     99.56%    100.00% |           0      0.00%    100.00% |           0      0.00%    100.00% |           0      0.00%    100.00% |           0      0.00%    100.00% |           0      0.00%    100.00% |           0      0.00%    100.00% |           0      0.00%    100.00% |           0      0.00%    100.00% |           0      0.00%    100.00% |           0      0.00%    100.00% |           0      0.00%    100.00% |           0      0.00%    100.00% |           0      0.00%    100.00% |           0      0.00%    100.00% |           0      0.00%    100.00% (Unspecified)
board.cache_hierarchy.ruby_system.L1Cache_Controller.Load::total       230952                       (Unspecified)
board.cache_hierarchy.ruby_system.L1Cache_Controller.Ifetch |        1548      0.24%      0.24% |      656123     99.76%    100.00% |           0      0.00%    100.00% |           0      0.00%    100.00% |           0      0.00%    100.00% |           0      0.00%    100.00% |           0      0.00%    100.00% |           0      0.00%    100.00% |           0      0.00%    100.00% |           0      0.00%    100.00% |           0      0.00%    100.00% |           0      0.00%    100.00% |           0      0.00%    100.00% |           0      0.00%    100.00% |           0      0.00%    100.00% |           0      0.00%    100.00% |           0      0.00%    100.00% (Unspecified)
board.cache_hierarchy.ruby_system.L1Cache_Controller.Ifetch::total       657671                       (Unspecified)
board.cache_hierarchy.ruby_system.L1Cache_Controller.Store |        1507      0.65%      0.65% |      230127     99.35%    100.00% |           0      0.00%    100.00% |           0      0.00%    100.00% |           0      0.00%    100.00% |           0      0.00%    100.00% |           0      0.00%    100.00% |           0      0.00%    100.00% |           0      0.00%    100.00% |           0      0.00%    100.00% |           0      0.00%    100.00% |           0      0.00%    100.00% |           0      0.00%    100.00% |           0      0.00%    100.00% |           0      0.00%    100.00% |           0      0.00%    100.00% |           0      0.00%    100.00% (Unspecified)
board.cache_hierarchy.ruby_system.L1Cache_Controller.Store::total       231634                       (Unspecified)
board.cache_hierarchy.ruby_system.L1Cache_Controller.Inv |           9     75.00%     75.00% |           3     25.00%    100.00% |           0      0.00%    100.00% |           0      0.00%    100.00% |           0      0.00%    100.00% |           0      0.00%    100.00% |           0      0.00%    100.00% |           0      0.00%    100.00% |           0      0.00%    100.00% |           0      0.00%    100.00% |           0      0.00%    100.00% |           0      0.00%    100.00% |           0      0.00%    100.00% |           0      0.00%    100.00% |           0      0.00%    100.00% |           0      0.00%    100.00% |           0      0.00%    100.00% (Unspecified)
board.cache_hierarchy.ruby_system.L1Cache_Controller.Inv::total           12                       (Unspecified)
board.cache_hierarchy.ruby_system.L1Cache_Controller.L1_Replacement |         352     17.68%     17.68% |        1639     82.32%    100.00% |           0      0.00%    100.00% |           0      0.00%    100.00% |           0      0.00%    100.00% |           0      0.00%    100.00% |           0      0.00%    100.00% |           0      0.00%    100.00% |           0      0.00%    100.00% |           0      0.00%    100.00% |           0      0.00%    100.00% |           0      0.00%    100.00% |           0      0.00%    100.00% |           0      0.00%    100.00% |           0      0.00%    100.00% |           0      0.00%    100.00% |           0      0.00%    100.00% (Unspecified)
board.cache_hierarchy.ruby_system.L1Cache_Controller.L1_Replacement::total         1991                       (Unspecified)
board.cache_hierarchy.ruby_system.L1Cache_Controller.Fwd_GETX |           4     80.00%     80.00% |           1     20.00%    100.00% |           0      0.00%    100.00% |           0      0.00%    100.00% |           0      0.00%    100.00% |           0      0.00%    100.00% |           0      0.00%    100.00% |           0      0.00%    100.00% |           0      0.00%    100.00% |           0      0.00%    100.00% |           0      0.00%    100.00% |           0      0.00%    100.00% |           0      0.00%    100.00% |           0      0.00%    100.00% |           0      0.00%    100.00% |           0      0.00%    100.00% |           0      0.00%    100.00% (Unspecified)
board.cache_hierarchy.ruby_system.L1Cache_Controller.Fwd_GETX::total            5                       (Unspecified)
board.cache_hierarchy.ruby_system.L1Cache_Controller.Fwd_GETS |         397     99.25%     99.25% |           3      0.75%    100.00% |           0      0.00%    100.00% |           0      0.00%    100.00% |           0      0.00%    100.00% |           0      0.00%    100.00% |           0      0.00%    100.00% |           0      0.00%    100.00% |           0      0.00%    100.00% |           0      0.00%    100.00% |           0      0.00%    100.00% |           0      0.00%    100.00% |           0      0.00%    100.00% |           0      0.00%    100.00% |           0      0.00%    100.00% |           0      0.00%    100.00% |           0      0.00%    100.00% (Unspecified)
board.cache_hierarchy.ruby_system.L1Cache_Controller.Fwd_GETS::total          400                       (Unspecified)
board.cache_hierarchy.ruby_system.L1Cache_Controller.Data_Exclusive |          48      2.76%      2.76% |        1690     97.24%    100.00% |           0      0.00%    100.00% |           0      0.00%    100.00% |           0      0.00%    100.00% |           0      0.00%    100.00% |           0      0.00%    100.00% |           0      0.00%    100.00% |           0      0.00%    100.00% |           0      0.00%    100.00% |           0      0.00%    100.00% |           0      0.00%    100.00% |           0      0.00%    100.00% |           0      0.00%    100.00% |           0      0.00%    100.00% |           0      0.00%    100.00% |           0      0.00%    100.00% (Unspecified)
board.cache_hierarchy.ruby_system.L1Cache_Controller.Data_Exclusive::total         1738                       (Unspecified)
board.cache_hierarchy.ruby_system.L1Cache_Controller.DataS_fromL1 |           3      0.75%      0.75% |         397     99.25%    100.00% |           0      0.00%    100.00% |           0      0.00%    100.00% |           0      0.00%    100.00% |           0      0.00%    100.00% |           0      0.00%    100.00% |           0      0.00%    100.00% |           0      0.00%    100.00% |           0      0.00%    100.00% |           0      0.00%    100.00% |           0      0.00%    100.00% |           0      0.00%    100.00% |           0      0.00%    100.00% |           0      0.00%    100.00% |           0      0.00%    100.00% |           0      0.00%    100.00% (Unspecified)
board.cache_hierarchy.ruby_system.L1Cache_Controller.DataS_fromL1::total          400                       (Unspecified)
board.cache_hierarchy.ruby_system.L1Cache_Controller.Data_all_Acks |         303     54.69%     54.69% |         251     45.31%    100.00% |           0      0.00%    100.00% |           0      0.00%    100.00% |           0      0.00%    100.00% |           0      0.00%    100.00% |           0      0.00%    100.00% |           0      0.00%    100.00% |           0      0.00%    100.00% |           0      0.00%    100.00% |           0      0.00%    100.00% |           0      0.00%    100.00% |           0      0.00%    100.00% |           0      0.00%    100.00% |           0      0.00%    100.00% |           0      0.00%    100.00% |           0      0.00%    100.00% (Unspecified)
board.cache_hierarchy.ruby_system.L1Cache_Controller.Data_all_Acks::total          554                       (Unspecified)
board.cache_hierarchy.ruby_system.L1Cache_Controller.Ack |           3     25.00%     25.00% |           9     75.00%    100.00% |           0      0.00%    100.00% |           0      0.00%    100.00% |           0      0.00%    100.00% |           0      0.00%    100.00% |           0      0.00%    100.00% |           0      0.00%    100.00% |           0      0.00%    100.00% |           0      0.00%    100.00% |           0      0.00%    100.00% |           0      0.00%    100.00% |           0      0.00%    100.00% |           0      0.00%    100.00% |           0      0.00%    100.00% |           0      0.00%    100.00% |           0      0.00%    100.00% (Unspecified)
board.cache_hierarchy.ruby_system.L1Cache_Controller.Ack::total           12                       (Unspecified)
board.cache_hierarchy.ruby_system.L1Cache_Controller.Ack_all |           3     25.00%     25.00% |           9     75.00%    100.00% |           0      0.00%    100.00% |           0      0.00%    100.00% |           0      0.00%    100.00% |           0      0.00%    100.00% |           0      0.00%    100.00% |           0      0.00%    100.00% |           0      0.00%    100.00% |           0      0.00%    100.00% |           0      0.00%    100.00% |           0      0.00%    100.00% |           0      0.00%    100.00% |           0      0.00%    100.00% |           0      0.00%    100.00% |           0      0.00%    100.00% |           0      0.00%    100.00% (Unspecified)
board.cache_hierarchy.ruby_system.L1Cache_Controller.Ack_all::total           12                       (Unspecified)
board.cache_hierarchy.ruby_system.L1Cache_Controller.WB_Ack |          92      5.39%      5.39% |        1615     94.61%    100.00% |           0      0.00%    100.00% |           0      0.00%    100.00% |           0      0.00%    100.00% |           0      0.00%    100.00% |           0      0.00%    100.00% |           0      0.00%    100.00% |           0      0.00%    100.00% |           0      0.00%    100.00% |           0      0.00%    100.00% |           0      0.00%    100.00% |           0      0.00%    100.00% |           0      0.00%    100.00% |           0      0.00%    100.00% |           0      0.00%    100.00% |           0      0.00%    100.00% (Unspecified)
board.cache_hierarchy.ruby_system.L1Cache_Controller.WB_Ack::total         1707                       (Unspecified)
board.cache_hierarchy.ruby_system.L1Cache_Controller.NP.Load |          50      2.34%      2.34% |        2089     97.66%    100.00% |           0      0.00%    100.00% |           0      0.00%    100.00% |           0      0.00%    100.00% |           0      0.00%    100.00% |           0      0.00%    100.00% |           0      0.00%    100.00% |           0      0.00%    100.00% |           0      0.00%    100.00% |           0      0.00%    100.00% |           0      0.00%    100.00% |           0      0.00%    100.00% |           0      0.00%    100.00% |           0      0.00%    100.00% |           0      0.00%    100.00% |           0      0.00%    100.00% (Unspecified)
board.cache_hierarchy.ruby_system.L1Cache_Controller.NP.Load::total         2139                       (Unspecified)
board.cache_hierarchy.ruby_system.L1Cache_Controller.NP.Ifetch |         256     57.79%     57.79% |         187     42.21%    100.00% |           0      0.00%    100.00% |           0      0.00%    100.00% |           0      0.00%    100.00% |           0      0.00%    100.00% |           0      0.00%    100.00% |           0      0.00%    100.00% |           0      0.00%    100.00% |           0      0.00%    100.00% |           0      0.00%    100.00% |           0      0.00%    100.00% |           0      0.00%    100.00% |           0      0.00%    100.00% |           0      0.00%    100.00% |           0      0.00%    100.00% |           0      0.00%    100.00% (Unspecified)
board.cache_hierarchy.ruby_system.L1Cache_Controller.NP.Ifetch::total          443                       (Unspecified)
board.cache_hierarchy.ruby_system.L1Cache_Controller.NP.Store |          45     42.06%     42.06% |          62     57.94%    100.00% |           0      0.00%    100.00% |           0      0.00%    100.00% |           0      0.00%    100.00% |           0      0.00%    100.00% |           0      0.00%    100.00% |           0      0.00%    100.00% |           0      0.00%    100.00% |           0      0.00%    100.00% |           0      0.00%    100.00% |           0      0.00%    100.00% |           0      0.00%    100.00% |           0      0.00%    100.00% |           0      0.00%    100.00% |           0      0.00%    100.00% |           0      0.00%    100.00% (Unspecified)
board.cache_hierarchy.ruby_system.L1Cache_Controller.NP.Store::total          107                       (Unspecified)
board.cache_hierarchy.ruby_system.L1Cache_Controller.I.Load |           2    100.00%    100.00% |           0      0.00%    100.00% |           0      0.00%    100.00% |           0      0.00%    100.00% |           0      0.00%    100.00% |           0      0.00%    100.00% |           0      0.00%    100.00% |           0      0.00%    100.00% |           0      0.00%    100.00% |           0      0.00%    100.00% |           0      0.00%    100.00% |           0      0.00%    100.00% |           0      0.00%    100.00% |           0      0.00%    100.00% |           0      0.00%    100.00% |           0      0.00%    100.00% |           0      0.00%    100.00% (Unspecified)
board.cache_hierarchy.ruby_system.L1Cache_Controller.I.Load::total            2                       (Unspecified)
board.cache_hierarchy.ruby_system.L1Cache_Controller.I.Store |           1    100.00%    100.00% |           0      0.00%    100.00% |           0      0.00%    100.00% |           0      0.00%    100.00% |           0      0.00%    100.00% |           0      0.00%    100.00% |           0      0.00%    100.00% |           0      0.00%    100.00% |           0      0.00%    100.00% |           0      0.00%    100.00% |           0      0.00%    100.00% |           0      0.00%    100.00% |           0      0.00%    100.00% |           0      0.00%    100.00% |           0      0.00%    100.00% |           0      0.00%    100.00% |           0      0.00%    100.00% (Unspecified)
board.cache_hierarchy.ruby_system.L1Cache_Controller.I.Store::total            1                       (Unspecified)
board.cache_hierarchy.ruby_system.L1Cache_Controller.I.L1_Replacement |           0      0.00%      0.00% |           1    100.00%    100.00% |           0      0.00%    100.00% |           0      0.00%    100.00% |           0      0.00%    100.00% |           0      0.00%    100.00% |           0      0.00%    100.00% |           0      0.00%    100.00% |           0      0.00%    100.00% |           0      0.00%    100.00% |           0      0.00%    100.00% |           0      0.00%    100.00% |           0      0.00%    100.00% |           0      0.00%    100.00% |           0      0.00%    100.00% |           0      0.00%    100.00% |           0      0.00%    100.00% (Unspecified)
board.cache_hierarchy.ruby_system.L1Cache_Controller.I.L1_Replacement::total            1                       (Unspecified)
board.cache_hierarchy.ruby_system.L1Cache_Controller.S.Load |           3      0.05%      0.05% |        5704     99.95%    100.00% |           0      0.00%    100.00% |           0      0.00%    100.00% |           0      0.00%    100.00% |           0      0.00%    100.00% |           0      0.00%    100.00% |           0      0.00%    100.00% |           0      0.00%    100.00% |           0      0.00%    100.00% |           0      0.00%    100.00% |           0      0.00%    100.00% |           0      0.00%    100.00% |           0      0.00%    100.00% |           0      0.00%    100.00% |           0      0.00%    100.00% |           0      0.00%    100.00% (Unspecified)
board.cache_hierarchy.ruby_system.L1Cache_Controller.S.Load::total         5707                       (Unspecified)
board.cache_hierarchy.ruby_system.L1Cache_Controller.S.Ifetch |        1292      0.20%      0.20% |      655936     99.80%    100.00% |           0      0.00%    100.00% |           0      0.00%    100.00% |           0      0.00%    100.00% |           0      0.00%    100.00% |           0      0.00%    100.00% |           0      0.00%    100.00% |           0      0.00%    100.00% |           0      0.00%    100.00% |           0      0.00%    100.00% |           0      0.00%    100.00% |           0      0.00%    100.00% |           0      0.00%    100.00% |           0      0.00%    100.00% |           0      0.00%    100.00% |           0      0.00%    100.00% (Unspecified)
board.cache_hierarchy.ruby_system.L1Cache_Controller.S.Ifetch::total       657228                       (Unspecified)
board.cache_hierarchy.ruby_system.L1Cache_Controller.S.Store |           3     25.00%     25.00% |           9     75.00%    100.00% |           0      0.00%    100.00% |           0      0.00%    100.00% |           0      0.00%    100.00% |           0      0.00%    100.00% |           0      0.00%    100.00% |           0      0.00%    100.00% |           0      0.00%    100.00% |           0      0.00%    100.00% |           0      0.00%    100.00% |           0      0.00%    100.00% |           0      0.00%    100.00% |           0      0.00%    100.00% |           0      0.00%    100.00% |           0      0.00%    100.00% |           0      0.00%    100.00% (Unspecified)
board.cache_hierarchy.ruby_system.L1Cache_Controller.S.Store::total           12                       (Unspecified)
board.cache_hierarchy.ruby_system.L1Cache_Controller.S.Inv |           9     75.00%     75.00% |           3     25.00%    100.00% |           0      0.00%    100.00% |           0      0.00%    100.00% |           0      0.00%    100.00% |           0      0.00%    100.00% |           0      0.00%    100.00% |           0      0.00%    100.00% |           0      0.00%    100.00% |           0      0.00%    100.00% |           0      0.00%    100.00% |           0      0.00%    100.00% |           0      0.00%    100.00% |           0      0.00%    100.00% |           0      0.00%    100.00% |           0      0.00%    100.00% |           0      0.00%    100.00% (Unspecified)
board.cache_hierarchy.ruby_system.L1Cache_Controller.S.Inv::total           12                       (Unspecified)
board.cache_hierarchy.ruby_system.L1Cache_Controller.S.L1_Replacement |         260     91.87%     91.87% |          23      8.13%    100.00% |           0      0.00%    100.00% |           0      0.00%    100.00% |           0      0.00%    100.00% |           0      0.00%    100.00% |           0      0.00%    100.00% |           0      0.00%    100.00% |           0      0.00%    100.00% |           0      0.00%    100.00% |           0      0.00%    100.00% |           0      0.00%    100.00% |           0      0.00%    100.00% |           0      0.00%    100.00% |           0      0.00%    100.00% |           0      0.00%    100.00% |           0      0.00%    100.00% (Unspecified)
board.cache_hierarchy.ruby_system.L1Cache_Controller.S.L1_Replacement::total          283                       (Unspecified)
board.cache_hierarchy.ruby_system.L1Cache_Controller.E.Load |         154      0.61%      0.61% |       25087     99.39%    100.00% |           0      0.00%    100.00% |           0      0.00%    100.00% |           0      0.00%    100.00% |           0      0.00%    100.00% |           0      0.00%    100.00% |           0      0.00%    100.00% |           0      0.00%    100.00% |           0      0.00%    100.00% |           0      0.00%    100.00% |           0      0.00%    100.00% |           0      0.00%    100.00% |           0      0.00%    100.00% |           0      0.00%    100.00% |           0      0.00%    100.00% |           0      0.00%    100.00% (Unspecified)
board.cache_hierarchy.ruby_system.L1Cache_Controller.E.Load::total        25241                       (Unspecified)
board.cache_hierarchy.ruby_system.L1Cache_Controller.E.Store |          15     65.22%     65.22% |           8     34.78%    100.00% |           0      0.00%    100.00% |           0      0.00%    100.00% |           0      0.00%    100.00% |           0      0.00%    100.00% |           0      0.00%    100.00% |           0      0.00%    100.00% |           0      0.00%    100.00% |           0      0.00%    100.00% |           0      0.00%    100.00% |           0      0.00%    100.00% |           0      0.00%    100.00% |           0      0.00%    100.00% |           0      0.00%    100.00% |           0      0.00%    100.00% |           0      0.00%    100.00% (Unspecified)
board.cache_hierarchy.ruby_system.L1Cache_Controller.E.Store::total           23                       (Unspecified)
board.cache_hierarchy.ruby_system.L1Cache_Controller.E.L1_Replacement |           1      0.06%      0.06% |        1603     99.94%    100.00% |           0      0.00%    100.00% |           0      0.00%    100.00% |           0      0.00%    100.00% |           0      0.00%    100.00% |           0      0.00%    100.00% |           0      0.00%    100.00% |           0      0.00%    100.00% |           0      0.00%    100.00% |           0      0.00%    100.00% |           0      0.00%    100.00% |           0      0.00%    100.00% |           0      0.00%    100.00% |           0      0.00%    100.00% |           0      0.00%    100.00% |           0      0.00%    100.00% (Unspecified)
board.cache_hierarchy.ruby_system.L1Cache_Controller.E.L1_Replacement::total         1604                       (Unspecified)
board.cache_hierarchy.ruby_system.L1Cache_Controller.E.Fwd_GETS |           9    100.00%    100.00% |           0      0.00%    100.00% |           0      0.00%    100.00% |           0      0.00%    100.00% |           0      0.00%    100.00% |           0      0.00%    100.00% |           0      0.00%    100.00% |           0      0.00%    100.00% |           0      0.00%    100.00% |           0      0.00%    100.00% |           0      0.00%    100.00% |           0      0.00%    100.00% |           0      0.00%    100.00% |           0      0.00%    100.00% |           0      0.00%    100.00% |           0      0.00%    100.00% |           0      0.00%    100.00% (Unspecified)
board.cache_hierarchy.ruby_system.L1Cache_Controller.E.Fwd_GETS::total            9                       (Unspecified)
board.cache_hierarchy.ruby_system.L1Cache_Controller.M.Load |         802      0.41%      0.41% |      197061     99.59%    100.00% |           0      0.00%    100.00% |           0      0.00%    100.00% |           0      0.00%    100.00% |           0      0.00%    100.00% |           0      0.00%    100.00% |           0      0.00%    100.00% |           0      0.00%    100.00% |           0      0.00%    100.00% |           0      0.00%    100.00% |           0      0.00%    100.00% |           0      0.00%    100.00% |           0      0.00%    100.00% |           0      0.00%    100.00% |           0      0.00%    100.00% |           0      0.00%    100.00% (Unspecified)
board.cache_hierarchy.ruby_system.L1Cache_Controller.M.Load::total       197863                       (Unspecified)
board.cache_hierarchy.ruby_system.L1Cache_Controller.M.Store |        1443      0.62%      0.62% |      230048     99.38%    100.00% |           0      0.00%    100.00% |           0      0.00%    100.00% |           0      0.00%    100.00% |           0      0.00%    100.00% |           0      0.00%    100.00% |           0      0.00%    100.00% |           0      0.00%    100.00% |           0      0.00%    100.00% |           0      0.00%    100.00% |           0      0.00%    100.00% |           0      0.00%    100.00% |           0      0.00%    100.00% |           0      0.00%    100.00% |           0      0.00%    100.00% |           0      0.00%    100.00% (Unspecified)
board.cache_hierarchy.ruby_system.L1Cache_Controller.M.Store::total       231491                       (Unspecified)
board.cache_hierarchy.ruby_system.L1Cache_Controller.M.L1_Replacement |          91     88.35%     88.35% |          12     11.65%    100.00% |           0      0.00%    100.00% |           0      0.00%    100.00% |           0      0.00%    100.00% |           0      0.00%    100.00% |           0      0.00%    100.00% |           0      0.00%    100.00% |           0      0.00%    100.00% |           0      0.00%    100.00% |           0      0.00%    100.00% |           0      0.00%    100.00% |           0      0.00%    100.00% |           0      0.00%    100.00% |           0      0.00%    100.00% |           0      0.00%    100.00% |           0      0.00%    100.00% (Unspecified)
board.cache_hierarchy.ruby_system.L1Cache_Controller.M.L1_Replacement::total          103                       (Unspecified)
board.cache_hierarchy.ruby_system.L1Cache_Controller.M.Fwd_GETX |           4     80.00%     80.00% |           1     20.00%    100.00% |           0      0.00%    100.00% |           0      0.00%    100.00% |           0      0.00%    100.00% |           0      0.00%    100.00% |           0      0.00%    100.00% |           0      0.00%    100.00% |           0      0.00%    100.00% |           0      0.00%    100.00% |           0      0.00%    100.00% |           0      0.00%    100.00% |           0      0.00%    100.00% |           0      0.00%    100.00% |           0      0.00%    100.00% |           0      0.00%    100.00% |           0      0.00%    100.00% (Unspecified)
board.cache_hierarchy.ruby_system.L1Cache_Controller.M.Fwd_GETX::total            5                       (Unspecified)
board.cache_hierarchy.ruby_system.L1Cache_Controller.M.Fwd_GETS |         388     99.23%     99.23% |           3      0.77%    100.00% |           0      0.00%    100.00% |           0      0.00%    100.00% |           0      0.00%    100.00% |           0      0.00%    100.00% |           0      0.00%    100.00% |           0      0.00%    100.00% |           0      0.00%    100.00% |           0      0.00%    100.00% |           0      0.00%    100.00% |           0      0.00%    100.00% |           0      0.00%    100.00% |           0      0.00%    100.00% |           0      0.00%    100.00% |           0      0.00%    100.00% |           0      0.00%    100.00% (Unspecified)
board.cache_hierarchy.ruby_system.L1Cache_Controller.M.Fwd_GETS::total          391                       (Unspecified)
board.cache_hierarchy.ruby_system.L1Cache_Controller.IS.Data_Exclusive |          48      2.76%      2.76% |        1690     97.24%    100.00% |           0      0.00%    100.00% |           0      0.00%    100.00% |           0      0.00%    100.00% |           0      0.00%    100.00% |           0      0.00%    100.00% |           0      0.00%    100.00% |           0      0.00%    100.00% |           0      0.00%    100.00% |           0      0.00%    100.00% |           0      0.00%    100.00% |           0      0.00%    100.00% |           0      0.00%    100.00% |           0      0.00%    100.00% |           0      0.00%    100.00% |           0      0.00%    100.00% (Unspecified)
board.cache_hierarchy.ruby_system.L1Cache_Controller.IS.Data_Exclusive::total         1738                       (Unspecified)
board.cache_hierarchy.ruby_system.L1Cache_Controller.IS.DataS_fromL1 |           3      0.75%      0.75% |         397     99.25%    100.00% |           0      0.00%    100.00% |           0      0.00%    100.00% |           0      0.00%    100.00% |           0      0.00%    100.00% |           0      0.00%    100.00% |           0      0.00%    100.00% |           0      0.00%    100.00% |           0      0.00%    100.00% |           0      0.00%    100.00% |           0      0.00%    100.00% |           0      0.00%    100.00% |           0      0.00%    100.00% |           0      0.00%    100.00% |           0      0.00%    100.00% |           0      0.00%    100.00% (Unspecified)
board.cache_hierarchy.ruby_system.L1Cache_Controller.IS.DataS_fromL1::total          400                       (Unspecified)
board.cache_hierarchy.ruby_system.L1Cache_Controller.IS.Data_all_Acks |         257     57.62%     57.62% |         189     42.38%    100.00% |           0      0.00%    100.00% |           0      0.00%    100.00% |           0      0.00%    100.00% |           0      0.00%    100.00% |           0      0.00%    100.00% |           0      0.00%    100.00% |           0      0.00%    100.00% |           0      0.00%    100.00% |           0      0.00%    100.00% |           0      0.00%    100.00% |           0      0.00%    100.00% |           0      0.00%    100.00% |           0      0.00%    100.00% |           0      0.00%    100.00% |           0      0.00%    100.00% (Unspecified)
board.cache_hierarchy.ruby_system.L1Cache_Controller.IS.Data_all_Acks::total          446                       (Unspecified)
board.cache_hierarchy.ruby_system.L1Cache_Controller.IM.Data_all_Acks |          46     42.59%     42.59% |          62     57.41%    100.00% |           0      0.00%    100.00% |           0      0.00%    100.00% |           0      0.00%    100.00% |           0      0.00%    100.00% |           0      0.00%    100.00% |           0      0.00%    100.00% |           0      0.00%    100.00% |           0      0.00%    100.00% |           0      0.00%    100.00% |           0      0.00%    100.00% |           0      0.00%    100.00% |           0      0.00%    100.00% |           0      0.00%    100.00% |           0      0.00%    100.00% |           0      0.00%    100.00% (Unspecified)
board.cache_hierarchy.ruby_system.L1Cache_Controller.IM.Data_all_Acks::total          108                       (Unspecified)
board.cache_hierarchy.ruby_system.L1Cache_Controller.SM.Ack |           3     25.00%     25.00% |           9     75.00%    100.00% |           0      0.00%    100.00% |           0      0.00%    100.00% |           0      0.00%    100.00% |           0      0.00%    100.00% |           0      0.00%    100.00% |           0      0.00%    100.00% |           0      0.00%    100.00% |           0      0.00%    100.00% |           0      0.00%    100.00% |           0      0.00%    100.00% |           0      0.00%    100.00% |           0      0.00%    100.00% |           0      0.00%    100.00% |           0      0.00%    100.00% |           0      0.00%    100.00% (Unspecified)
board.cache_hierarchy.ruby_system.L1Cache_Controller.SM.Ack::total           12                       (Unspecified)
board.cache_hierarchy.ruby_system.L1Cache_Controller.SM.Ack_all |           3     25.00%     25.00% |           9     75.00%    100.00% |           0      0.00%    100.00% |           0      0.00%    100.00% |           0      0.00%    100.00% |           0      0.00%    100.00% |           0      0.00%    100.00% |           0      0.00%    100.00% |           0      0.00%    100.00% |           0      0.00%    100.00% |           0      0.00%    100.00% |           0      0.00%    100.00% |           0      0.00%    100.00% |           0      0.00%    100.00% |           0      0.00%    100.00% |           0      0.00%    100.00% |           0      0.00%    100.00% (Unspecified)
board.cache_hierarchy.ruby_system.L1Cache_Controller.SM.Ack_all::total           12                       (Unspecified)
board.cache_hierarchy.ruby_system.L1Cache_Controller.M_I.WB_Ack |          92      5.39%      5.39% |        1615     94.61%    100.00% |           0      0.00%    100.00% |           0      0.00%    100.00% |           0      0.00%    100.00% |           0      0.00%    100.00% |           0      0.00%    100.00% |           0      0.00%    100.00% |           0      0.00%    100.00% |           0      0.00%    100.00% |           0      0.00%    100.00% |           0      0.00%    100.00% |           0      0.00%    100.00% |           0      0.00%    100.00% |           0      0.00%    100.00% |           0      0.00%    100.00% |           0      0.00%    100.00% (Unspecified)
board.cache_hierarchy.ruby_system.L1Cache_Controller.M_I.WB_Ack::total         1707                       (Unspecified)
board.cache_hierarchy.ruby_system.L2Cache_Controller.L1_GET_INSTR |          27      6.09%      6.09% |          27      6.09%     12.19% |          28      6.32%     18.51% |          32      7.22%     25.73% |          30      6.77%     32.51% |          31      7.00%     39.50% |          33      7.45%     46.95% |          24      5.42%     52.37% |          26      5.87%     58.24% |          26      5.87%     64.11% |          25      5.64%     69.75% |          25      5.64%     75.40% |          29      6.55%     81.94% |          26      5.87%     87.81% |          27      6.09%     93.91% |          27      6.09%    100.00% (Unspecified)
board.cache_hierarchy.ruby_system.L2Cache_Controller.L1_GET_INSTR::total          443                       (Unspecified)
board.cache_hierarchy.ruby_system.L2Cache_Controller.L1_GETS |         132      6.17%      6.17% |         138      6.45%     12.61% |         135      6.31%     18.92% |         132      6.17%     25.08% |         134      6.26%     31.34% |         136      6.35%     37.69% |         137      6.40%     44.09% |         132      6.17%     50.26% |         133      6.21%     56.47% |         134      6.26%     62.73% |         136      6.35%     69.08% |         130      6.07%     75.15% |         134      6.26%     81.41% |         130      6.07%     87.48% |         134      6.26%     93.74% |         134      6.26%    100.00% (Unspecified)
board.cache_hierarchy.ruby_system.L2Cache_Controller.L1_GETS::total         2141                       (Unspecified)
board.cache_hierarchy.ruby_system.L2Cache_Controller.L1_GETX |           6      5.56%      5.56% |           6      5.56%     11.11% |           7      6.48%     17.59% |           9      8.33%     25.93% |           8      7.41%     33.33% |          11     10.19%     43.52% |           7      6.48%     50.00% |           9      8.33%     58.33% |           8      7.41%     65.74% |           5      4.63%     70.37% |           5      4.63%     75.00% |           5      4.63%     79.63% |           6      5.56%     85.19% |           6      5.56%     90.74% |           6      5.56%     96.30% |           4      3.70%    100.00% (Unspecified)
board.cache_hierarchy.ruby_system.L2Cache_Controller.L1_GETX::total          108                       (Unspecified)
board.cache_hierarchy.ruby_system.L2Cache_Controller.L1_UPGRADE |           1      8.33%      8.33% |           4     33.33%     41.67% |           1      8.33%     50.00% |           0      0.00%     50.00% |           1      8.33%     58.33% |           2     16.67%     75.00% |           1      8.33%     83.33% |           0      0.00%     83.33% |           0      0.00%     83.33% |           0      0.00%     83.33% |           1      8.33%     91.67% |           0      0.00%     91.67% |           0      0.00%     91.67% |           0      0.00%     91.67% |           1      8.33%    100.00% |           0      0.00%    100.00% (Unspecified)
board.cache_hierarchy.ruby_system.L2Cache_Controller.L1_UPGRADE::total           12                       (Unspecified)
board.cache_hierarchy.ruby_system.L2Cache_Controller.L1_PUTX |         100      5.86%      5.86% |         107      6.27%     12.13% |         107      6.27%     18.39% |         108      6.33%     24.72% |         109      6.39%     31.11% |         113      6.62%     37.73% |         112      6.56%     44.29% |         109      6.39%     50.67% |         108      6.33%     57.00% |         104      6.09%     63.09% |         108      6.33%     69.42% |         103      6.03%     75.45% |         107      6.27%     81.72% |         103      6.03%     87.76% |         107      6.27%     94.02% |         102      5.98%    100.00% (Unspecified)
board.cache_hierarchy.ruby_system.L2Cache_Controller.L1_PUTX::total         1707                       (Unspecified)
board.cache_hierarchy.ruby_system.L2Cache_Controller.Mem_Data |          27      6.12%      6.12% |          28      6.35%     12.47% |          29      6.58%     19.05% |          32      7.26%     26.30% |          31      7.03%     33.33% |          34      7.71%     41.04% |          33      7.48%     48.53% |          25      5.67%     54.20% |          23      5.22%     59.41% |          25      5.67%     65.08% |          25      5.67%     70.75% |          22      4.99%     75.74% |          28      6.35%     82.09% |          25      5.67%     87.76% |          26      5.90%     93.65% |          28      6.35%    100.00% (Unspecified)
board.cache_hierarchy.ruby_system.L2Cache_Controller.Mem_Data::total          441                       (Unspecified)
board.cache_hierarchy.ruby_system.L2Cache_Controller.WB_Data |          28      7.16%      7.16% |          32      8.18%     15.35% |          27      6.91%     22.25% |          24      6.14%     28.39% |          23      5.88%     34.27% |          21      5.37%     39.64% |          19      4.86%     44.50% |          22      5.63%     50.13% |          24      6.14%     56.27% |          27      6.91%     63.17% |          22      5.63%     68.80% |          24      6.14%     74.94% |          23      5.88%     80.82% |          23      5.88%     86.70% |          26      6.65%     93.35% |          26      6.65%    100.00% (Unspecified)
board.cache_hierarchy.ruby_system.L2Cache_Controller.WB_Data::total          391                       (Unspecified)
board.cache_hierarchy.ruby_system.L2Cache_Controller.WB_Data_clean |           0      0.00%      0.00% |           0      0.00%      0.00% |           1     11.11%     11.11% |           1     11.11%     22.22% |           1     11.11%     33.33% |           1     11.11%     44.44% |           0      0.00%     44.44% |           0      0.00%     44.44% |           0      0.00%     44.44% |           1     11.11%     55.56% |           2     22.22%     77.78% |           0      0.00%     77.78% |           0      0.00%     77.78% |           0      0.00%     77.78% |           1     11.11%     88.89% |           1     11.11%    100.00% (Unspecified)
board.cache_hierarchy.ruby_system.L2Cache_Controller.WB_Data_clean::total            9                       (Unspecified)
board.cache_hierarchy.ruby_system.L2Cache_Controller.Unblock |          28      7.00%      7.00% |          32      8.00%     15.00% |          28      7.00%     22.00% |          25      6.25%     28.25% |          24      6.00%     34.25% |          22      5.50%     39.75% |          19      4.75%     44.50% |          22      5.50%     50.00% |          24      6.00%     56.00% |          28      7.00%     63.00% |          24      6.00%     69.00% |          24      6.00%     75.00% |          23      5.75%     80.75% |          23      5.75%     86.50% |          27      6.75%     93.25% |          27      6.75%    100.00% (Unspecified)
board.cache_hierarchy.ruby_system.L2Cache_Controller.Unblock::total          400                       (Unspecified)
board.cache_hierarchy.ruby_system.L2Cache_Controller.Exclusive_Unblock |         110      5.92%      5.92% |         116      6.24%     12.16% |         114      6.14%     18.30% |         116      6.24%     24.54% |         119      6.40%     30.95% |         127      6.84%     37.78% |         126      6.78%     44.56% |         119      6.40%     50.97% |         117      6.30%     57.27% |         110      5.92%     63.19% |         118      6.35%     69.54% |         111      5.97%     75.51% |         117      6.30%     81.81% |         113      6.08%     87.89% |         114      6.14%     94.03% |         111      5.97%    100.00% (Unspecified)
board.cache_hierarchy.ruby_system.L2Cache_Controller.Exclusive_Unblock::total         1858                       (Unspecified)
board.cache_hierarchy.ruby_system.L2Cache_Controller.NP.L1_GET_INSTR |          23      6.78%      6.78% |          22      6.49%     13.27% |          23      6.78%     20.06% |          25      7.37%     27.43% |          23      6.78%     34.22% |          25      7.37%     41.59% |          24      7.08%     48.67% |          18      5.31%     53.98% |          17      5.01%     59.00% |          19      5.60%     64.60% |          19      5.60%     70.21% |          18      5.31%     75.52% |          21      6.19%     81.71% |          19      5.60%     87.32% |          21      6.19%     93.51% |          22      6.49%    100.00% (Unspecified)
board.cache_hierarchy.ruby_system.L2Cache_Controller.NP.L1_GET_INSTR::total          339                       (Unspecified)
board.cache_hierarchy.ruby_system.L2Cache_Controller.NP.L1_GETS |           0      0.00%      0.00% |           2     13.33%     13.33% |           0      0.00%     13.33% |           0      0.00%     13.33% |           1      6.67%     20.00% |           1      6.67%     26.67% |           3     20.00%     46.67% |           0      0.00%     46.67% |           0      0.00%     46.67% |           2     13.33%     60.00% |           2     13.33%     73.33% |           0      0.00%     73.33% |           2     13.33%     86.67% |           0      0.00%     86.67% |           0      0.00%     86.67% |           2     13.33%    100.00% (Unspecified)
board.cache_hierarchy.ruby_system.L2Cache_Controller.NP.L1_GETS::total           15                       (Unspecified)
board.cache_hierarchy.ruby_system.L2Cache_Controller.NP.L1_GETX |           4      4.60%      4.60% |           4      4.60%      9.20% |           6      6.90%     16.09% |           7      8.05%     24.14% |           7      8.05%     32.18% |           8      9.20%     41.38% |           6      6.90%     48.28% |           7      8.05%     56.32% |           6      6.90%     63.22% |           4      4.60%     67.82% |           4      4.60%     72.41% |           4      4.60%     77.01% |           5      5.75%     82.76% |           6      6.90%     89.66% |           5      5.75%     95.40% |           4      4.60%    100.00% (Unspecified)
board.cache_hierarchy.ruby_system.L2Cache_Controller.NP.L1_GETX::total           87                       (Unspecified)
board.cache_hierarchy.ruby_system.L2Cache_Controller.SS.L1_GET_INSTR |           4      3.92%      3.92% |           5      4.90%      8.82% |           5      4.90%     13.73% |           7      6.86%     20.59% |           7      6.86%     27.45% |           6      5.88%     33.33% |           8      7.84%     41.18% |           6      5.88%     47.06% |           9      8.82%     55.88% |           6      5.88%     61.76% |           6      5.88%     67.65% |           7      6.86%     74.51% |           8      7.84%     82.35% |           7      6.86%     89.22% |           6      5.88%     95.10% |           5      4.90%    100.00% (Unspecified)
board.cache_hierarchy.ruby_system.L2Cache_Controller.SS.L1_GET_INSTR::total          102                       (Unspecified)
board.cache_hierarchy.ruby_system.L2Cache_Controller.SS.L1_GETS |           1     33.33%     33.33% |           0      0.00%     33.33% |           1     33.33%     66.67% |           0      0.00%     66.67% |           0      0.00%     66.67% |           0      0.00%     66.67% |           0      0.00%     66.67% |           0      0.00%     66.67% |           0      0.00%     66.67% |           1     33.33%    100.00% |           0      0.00%    100.00% |           0      0.00%    100.00% |           0      0.00%    100.00% |           0      0.00%    100.00% |           0      0.00%    100.00% |           0      0.00%    100.00% (Unspecified)
board.cache_hierarchy.ruby_system.L2Cache_Controller.SS.L1_GETS::total            3                       (Unspecified)
board.cache_hierarchy.ruby_system.L2Cache_Controller.SS.L1_UPGRADE |           1      8.33%      8.33% |           4     33.33%     41.67% |           1      8.33%     50.00% |           0      0.00%     50.00% |           1      8.33%     58.33% |           2     16.67%     75.00% |           1      8.33%     83.33% |           0      0.00%     83.33% |           0      0.00%     83.33% |           0      0.00%     83.33% |           1      8.33%     91.67% |           0      0.00%     91.67% |           0      0.00%     91.67% |           0      0.00%     91.67% |           1      8.33%    100.00% |           0      0.00%    100.00% (Unspecified)
board.cache_hierarchy.ruby_system.L2Cache_Controller.SS.L1_UPGRADE::total           12                       (Unspecified)
board.cache_hierarchy.ruby_system.L2Cache_Controller.M.L1_GETS |         103      5.98%      5.98% |         104      6.04%     12.01% |         106      6.15%     18.17% |         107      6.21%     24.38% |         109      6.33%     30.70% |         113      6.56%     37.26% |         115      6.67%     43.93% |         110      6.38%     50.32% |         109      6.33%     56.65% |         103      5.98%     62.62% |         110      6.38%     69.01% |         106      6.15%     75.16% |         109      6.33%     81.49% |         107      6.21%     87.70% |         107      6.21%     93.91% |         105      6.09%    100.00% (Unspecified)
board.cache_hierarchy.ruby_system.L2Cache_Controller.M.L1_GETS::total         1723                       (Unspecified)
board.cache_hierarchy.ruby_system.L2Cache_Controller.M.L1_GETX |           2     12.50%     12.50% |           1      6.25%     18.75% |           1      6.25%     25.00% |           2     12.50%     37.50% |           1      6.25%     43.75% |           2     12.50%     56.25% |           1      6.25%     62.50% |           1      6.25%     68.75% |           1      6.25%     75.00% |           1      6.25%     81.25% |           1      6.25%     87.50% |           1      6.25%     93.75% |           0      0.00%     93.75% |           0      0.00%     93.75% |           1      6.25%    100.00% |           0      0.00%    100.00% (Unspecified)
board.cache_hierarchy.ruby_system.L2Cache_Controller.M.L1_GETX::total           16                       (Unspecified)
board.cache_hierarchy.ruby_system.L2Cache_Controller.MT.L1_GETS |          28      7.00%      7.00% |          32      8.00%     15.00% |          28      7.00%     22.00% |          25      6.25%     28.25% |          24      6.00%     34.25% |          22      5.50%     39.75% |          19      4.75%     44.50% |          22      5.50%     50.00% |          24      6.00%     56.00% |          28      7.00%     63.00% |          24      6.00%     69.00% |          24      6.00%     75.00% |          23      5.75%     80.75% |          23      5.75%     86.50% |          27      6.75%     93.25% |          27      6.75%    100.00% (Unspecified)
board.cache_hierarchy.ruby_system.L2Cache_Controller.MT.L1_GETS::total          400                       (Unspecified)
board.cache_hierarchy.ruby_system.L2Cache_Controller.MT.L1_GETX |           0      0.00%      0.00% |           1     20.00%     20.00% |           0      0.00%     20.00% |           0      0.00%     20.00% |           0      0.00%     20.00% |           1     20.00%     40.00% |           0      0.00%     40.00% |           1     20.00%     60.00% |           1     20.00%     80.00% |           0      0.00%     80.00% |           0      0.00%     80.00% |           0      0.00%     80.00% |           1     20.00%    100.00% |           0      0.00%    100.00% |           0      0.00%    100.00% |           0      0.00%    100.00% (Unspecified)
board.cache_hierarchy.ruby_system.L2Cache_Controller.MT.L1_GETX::total            5                       (Unspecified)
board.cache_hierarchy.ruby_system.L2Cache_Controller.MT.L1_PUTX |         100      5.86%      5.86% |         107      6.27%     12.13% |         107      6.27%     18.39% |         108      6.33%     24.72% |         109      6.39%     31.11% |         113      6.62%     37.73% |         112      6.56%     44.29% |         109      6.39%     50.67% |         108      6.33%     57.00% |         104      6.09%     63.09% |         108      6.33%     69.42% |         103      6.03%     75.45% |         107      6.27%     81.72% |         103      6.03%     87.76% |         107      6.27%     94.02% |         102      5.98%    100.00% (Unspecified)
board.cache_hierarchy.ruby_system.L2Cache_Controller.MT.L1_PUTX::total         1707                       (Unspecified)
board.cache_hierarchy.ruby_system.L2Cache_Controller.ISS.Mem_Data |           0      0.00%      0.00% |           2     13.33%     13.33% |           0      0.00%     13.33% |           0      0.00%     13.33% |           1      6.67%     20.00% |           1      6.67%     26.67% |           3     20.00%     46.67% |           0      0.00%     46.67% |           0      0.00%     46.67% |           2     13.33%     60.00% |           2     13.33%     73.33% |           0      0.00%     73.33% |           2     13.33%     86.67% |           0      0.00%     86.67% |           0      0.00%     86.67% |           2     13.33%    100.00% (Unspecified)
board.cache_hierarchy.ruby_system.L2Cache_Controller.ISS.Mem_Data::total           15                       (Unspecified)
board.cache_hierarchy.ruby_system.L2Cache_Controller.IS.L1_GET_INSTR |           0      0.00%      0.00% |           0      0.00%      0.00% |           0      0.00%      0.00% |           0      0.00%      0.00% |           0      0.00%      0.00% |           0      0.00%      0.00% |           1     50.00%     50.00% |           0      0.00%     50.00% |           0      0.00%     50.00% |           1     50.00%    100.00% |           0      0.00%    100.00% |           0      0.00%    100.00% |           0      0.00%    100.00% |           0      0.00%    100.00% |           0      0.00%    100.00% |           0      0.00%    100.00% (Unspecified)
board.cache_hierarchy.ruby_system.L2Cache_Controller.IS.L1_GET_INSTR::total            2                       (Unspecified)
board.cache_hierarchy.ruby_system.L2Cache_Controller.IS.Mem_Data |          23      6.78%      6.78% |          22      6.49%     13.27% |          23      6.78%     20.06% |          25      7.37%     27.43% |          23      6.78%     34.22% |          25      7.37%     41.59% |          24      7.08%     48.67% |          18      5.31%     53.98% |          17      5.01%     59.00% |          19      5.60%     64.60% |          19      5.60%     70.21% |          18      5.31%     75.52% |          21      6.19%     81.71% |          19      5.60%     87.32% |          21      6.19%     93.51% |          22      6.49%    100.00% (Unspecified)
board.cache_hierarchy.ruby_system.L2Cache_Controller.IS.Mem_Data::total          339                       (Unspecified)
board.cache_hierarchy.ruby_system.L2Cache_Controller.IM.Mem_Data |           4      4.60%      4.60% |           4      4.60%      9.20% |           6      6.90%     16.09% |           7      8.05%     24.14% |           7      8.05%     32.18% |           8      9.20%     41.38% |           6      6.90%     48.28% |           7      8.05%     56.32% |           6      6.90%     63.22% |           4      4.60%     67.82% |           4      4.60%     72.41% |           4      4.60%     77.01% |           5      5.75%     82.76% |           6      6.90%     89.66% |           5      5.75%     95.40% |           4      4.60%    100.00% (Unspecified)
board.cache_hierarchy.ruby_system.L2Cache_Controller.IM.Mem_Data::total           87                       (Unspecified)
board.cache_hierarchy.ruby_system.L2Cache_Controller.SS_MB.Exclusive_Unblock |           1      8.33%      8.33% |           4     33.33%     41.67% |           1      8.33%     50.00% |           0      0.00%     50.00% |           1      8.33%     58.33% |           2     16.67%     75.00% |           1      8.33%     83.33% |           0      0.00%     83.33% |           0      0.00%     83.33% |           0      0.00%     83.33% |           1      8.33%     91.67% |           0      0.00%     91.67% |           0      0.00%     91.67% |           0      0.00%     91.67% |           1      8.33%    100.00% |           0      0.00%    100.00% (Unspecified)
board.cache_hierarchy.ruby_system.L2Cache_Controller.SS_MB.Exclusive_Unblock::total           12                       (Unspecified)
board.cache_hierarchy.ruby_system.L2Cache_Controller.MT_MB.Exclusive_Unblock |         109      5.90%      5.90% |         112      6.07%     11.97% |         113      6.12%     18.09% |         116      6.28%     24.38% |         118      6.39%     30.77% |         125      6.77%     37.54% |         125      6.77%     44.31% |         119      6.45%     50.76% |         117      6.34%     57.10% |         110      5.96%     63.06% |         117      6.34%     69.39% |         111      6.01%     75.41% |         117      6.34%     81.74% |         113      6.12%     87.87% |         113      6.12%     93.99% |         111      6.01%    100.00% (Unspecified)
board.cache_hierarchy.ruby_system.L2Cache_Controller.MT_MB.Exclusive_Unblock::total         1846                       (Unspecified)
board.cache_hierarchy.ruby_system.L2Cache_Controller.MT_IIB.WB_Data |          28      7.20%      7.20% |          30      7.71%     14.91% |          27      6.94%     21.85% |          24      6.17%     28.02% |          23      5.91%     33.93% |          21      5.40%     39.33% |          19      4.88%     44.22% |          22      5.66%     49.87% |          24      6.17%     56.04% |          27      6.94%     62.98% |          22      5.66%     68.64% |          24      6.17%     74.81% |          23      5.91%     80.72% |          23      5.91%     86.63% |          26      6.68%     93.32% |          26      6.68%    100.00% (Unspecified)
board.cache_hierarchy.ruby_system.L2Cache_Controller.MT_IIB.WB_Data::total          389                       (Unspecified)
board.cache_hierarchy.ruby_system.L2Cache_Controller.MT_IIB.WB_Data_clean |           0      0.00%      0.00% |           0      0.00%      0.00% |           1     11.11%     11.11% |           1     11.11%     22.22% |           1     11.11%     33.33% |           1     11.11%     44.44% |           0      0.00%     44.44% |           0      0.00%     44.44% |           0      0.00%     44.44% |           1     11.11%     55.56% |           2     22.22%     77.78% |           0      0.00%     77.78% |           0      0.00%     77.78% |           0      0.00%     77.78% |           1     11.11%     88.89% |           1     11.11%    100.00% (Unspecified)
board.cache_hierarchy.ruby_system.L2Cache_Controller.MT_IIB.WB_Data_clean::total            9                       (Unspecified)
board.cache_hierarchy.ruby_system.L2Cache_Controller.MT_IIB.Unblock |           0      0.00%      0.00% |           2    100.00%    100.00% |           0      0.00%    100.00% |           0      0.00%    100.00% |           0      0.00%    100.00% |           0      0.00%    100.00% |           0      0.00%    100.00% |           0      0.00%    100.00% |           0      0.00%    100.00% |           0      0.00%    100.00% |           0      0.00%    100.00% |           0      0.00%    100.00% |           0      0.00%    100.00% |           0      0.00%    100.00% |           0      0.00%    100.00% |           0      0.00%    100.00% (Unspecified)
board.cache_hierarchy.ruby_system.L2Cache_Controller.MT_IIB.Unblock::total            2                       (Unspecified)
board.cache_hierarchy.ruby_system.L2Cache_Controller.MT_IB.WB_Data |           0      0.00%      0.00% |           2    100.00%    100.00% |           0      0.00%    100.00% |           0      0.00%    100.00% |           0      0.00%    100.00% |           0      0.00%    100.00% |           0      0.00%    100.00% |           0      0.00%    100.00% |           0      0.00%    100.00% |           0      0.00%    100.00% |           0      0.00%    100.00% |           0      0.00%    100.00% |           0      0.00%    100.00% |           0      0.00%    100.00% |           0      0.00%    100.00% |           0      0.00%    100.00% (Unspecified)
board.cache_hierarchy.ruby_system.L2Cache_Controller.MT_IB.WB_Data::total            2                       (Unspecified)
board.cache_hierarchy.ruby_system.L2Cache_Controller.MT_SB.Unblock |          28      7.04%      7.04% |          30      7.54%     14.57% |          28      7.04%     21.61% |          25      6.28%     27.89% |          24      6.03%     33.92% |          22      5.53%     39.45% |          19      4.77%     44.22% |          22      5.53%     49.75% |          24      6.03%     55.78% |          28      7.04%     62.81% |          24      6.03%     68.84% |          24      6.03%     74.87% |          23      5.78%     80.65% |          23      5.78%     86.43% |          27      6.78%     93.22% |          27      6.78%    100.00% (Unspecified)
board.cache_hierarchy.ruby_system.L2Cache_Controller.MT_SB.Unblock::total          398                       (Unspecified)
board.cache_hierarchy.ruby_system.RequestType.LD.latency_hist_seqr::bucket_size           32                       (Unspecified)
board.cache_hierarchy.ruby_system.RequestType.LD.latency_hist_seqr::max_bucket          319                       (Unspecified)
board.cache_hierarchy.ruby_system.RequestType.LD.latency_hist_seqr::samples       230952                       (Unspecified)
board.cache_hierarchy.ruby_system.RequestType.LD.latency_hist_seqr::mean     1.510431                       (Unspecified)
board.cache_hierarchy.ruby_system.RequestType.LD.latency_hist_seqr::gmean     1.037564                       (Unspecified)
board.cache_hierarchy.ruby_system.RequestType.LD.latency_hist_seqr::stdev     5.561065                       (Unspecified)
board.cache_hierarchy.ruby_system.RequestType.LD.latency_hist_seqr |      228915     99.12%     99.12% |        2018      0.87%     99.99% |           4      0.00%     99.99% |           0      0.00%     99.99% |           0      0.00%     99.99% |           2      0.00%     99.99% |           3      0.00%    100.00% |           6      0.00%    100.00% |           4      0.00%    100.00% |           0      0.00%    100.00% (Unspecified)
board.cache_hierarchy.ruby_system.RequestType.LD.latency_hist_seqr::total       230952                       (Unspecified)
board.cache_hierarchy.ruby_system.RequestType.LD.hit_latency_hist_seqr::bucket_size            1                       (Unspecified)
board.cache_hierarchy.ruby_system.RequestType.LD.hit_latency_hist_seqr::max_bucket            9                       (Unspecified)
board.cache_hierarchy.ruby_system.RequestType.LD.hit_latency_hist_seqr::samples       228811                       (Unspecified)
board.cache_hierarchy.ruby_system.RequestType.LD.hit_latency_hist_seqr::mean            1                       (Unspecified)
board.cache_hierarchy.ruby_system.RequestType.LD.hit_latency_hist_seqr::gmean            1                       (Unspecified)
board.cache_hierarchy.ruby_system.RequestType.LD.hit_latency_hist_seqr |           0      0.00%      0.00% |      228811    100.00%    100.00% |           0      0.00%    100.00% |           0      0.00%    100.00% |           0      0.00%    100.00% |           0      0.00%    100.00% |           0      0.00%    100.00% |           0      0.00%    100.00% |           0      0.00%    100.00% |           0      0.00%    100.00% (Unspecified)
board.cache_hierarchy.ruby_system.RequestType.LD.hit_latency_hist_seqr::total       228811                       (Unspecified)
board.cache_hierarchy.ruby_system.RequestType.LD.miss_latency_hist_seqr::bucket_size           32                       (Unspecified)
board.cache_hierarchy.ruby_system.RequestType.LD.miss_latency_hist_seqr::max_bucket          319                       (Unspecified)
board.cache_hierarchy.ruby_system.RequestType.LD.miss_latency_hist_seqr::samples         2141                       (Unspecified)
board.cache_hierarchy.ruby_system.RequestType.LD.miss_latency_hist_seqr::mean    56.060719                       (Unspecified)
board.cache_hierarchy.ruby_system.RequestType.LD.miss_latency_hist_seqr::gmean    53.402971                       (Unspecified)
board.cache_hierarchy.ruby_system.RequestType.LD.miss_latency_hist_seqr::stdev    18.235250                       (Unspecified)
board.cache_hierarchy.ruby_system.RequestType.LD.miss_latency_hist_seqr |         104      4.86%      4.86% |        2018     94.26%     99.11% |           4      0.19%     99.30% |           0      0.00%     99.30% |           0      0.00%     99.30% |           2      0.09%     99.39% |           3      0.14%     99.53% |           6      0.28%     99.81% |           4      0.19%    100.00% |           0      0.00%    100.00% (Unspecified)
board.cache_hierarchy.ruby_system.RequestType.LD.miss_latency_hist_seqr::total         2141                       (Unspecified)
board.cache_hierarchy.ruby_system.RequestType.ST.latency_hist_seqr::bucket_size           32                       (Unspecified)
board.cache_hierarchy.ruby_system.RequestType.ST.latency_hist_seqr::max_bucket          319                       (Unspecified)
board.cache_hierarchy.ruby_system.RequestType.ST.latency_hist_seqr::samples       165978                       (Unspecified)
board.cache_hierarchy.ruby_system.RequestType.ST.latency_hist_seqr::mean     1.107647                       (Unspecified)
board.cache_hierarchy.ruby_system.RequestType.ST.latency_hist_seqr::gmean     1.003443                       (Unspecified)
board.cache_hierarchy.ruby_system.RequestType.ST.latency_hist_seqr::stdev     4.547757                       (Unspecified)
board.cache_hierarchy.ruby_system.RequestType.ST.latency_hist_seqr |      165872     99.94%     99.94% |          20      0.01%     99.95% |           1      0.00%     99.95% |           0      0.00%     99.95% |           3      0.00%     99.95% |          23      0.01%     99.96% |          51      0.03%    100.00% |           3      0.00%    100.00% |           5      0.00%    100.00% |           0      0.00%    100.00% (Unspecified)
board.cache_hierarchy.ruby_system.RequestType.ST.latency_hist_seqr::total       165978                       (Unspecified)
board.cache_hierarchy.ruby_system.RequestType.ST.hit_latency_hist_seqr::bucket_size           32                       (Unspecified)
board.cache_hierarchy.ruby_system.RequestType.ST.hit_latency_hist_seqr::max_bucket          319                       (Unspecified)
board.cache_hierarchy.ruby_system.RequestType.ST.hit_latency_hist_seqr::samples       165874                       (Unspecified)
board.cache_hierarchy.ruby_system.RequestType.ST.hit_latency_hist_seqr::mean     1.001688                       (Unspecified)
board.cache_hierarchy.ruby_system.RequestType.ST.hit_latency_hist_seqr::gmean     1.000302                       (Unspecified)
board.cache_hierarchy.ruby_system.RequestType.ST.hit_latency_hist_seqr::stdev     0.431355                       (Unspecified)
board.cache_hierarchy.ruby_system.RequestType.ST.hit_latency_hist_seqr |      165872    100.00%    100.00% |           1      0.00%    100.00% |           0      0.00%    100.00% |           0      0.00%    100.00% |           0      0.00%    100.00% |           1      0.00%    100.00% |           0      0.00%    100.00% |           0      0.00%    100.00% |           0      0.00%    100.00% |           0      0.00%    100.00% (Unspecified)
board.cache_hierarchy.ruby_system.RequestType.ST.hit_latency_hist_seqr::total       165874                       (Unspecified)
board.cache_hierarchy.ruby_system.RequestType.ST.miss_latency_hist_seqr::bucket_size           32                       (Unspecified)
board.cache_hierarchy.ruby_system.RequestType.ST.miss_latency_hist_seqr::max_bucket          319                       (Unspecified)
board.cache_hierarchy.ruby_system.RequestType.ST.miss_latency_hist_seqr::samples          104                       (Unspecified)
board.cache_hierarchy.ruby_system.RequestType.ST.miss_latency_hist_seqr::mean   170.105769                       (Unspecified)
board.cache_hierarchy.ruby_system.RequestType.ST.miss_latency_hist_seqr::gmean   148.944795                       (Unspecified)
board.cache_hierarchy.ruby_system.RequestType.ST.miss_latency_hist_seqr::stdev    64.593414                       (Unspecified)
board.cache_hierarchy.ruby_system.RequestType.ST.miss_latency_hist_seqr |           0      0.00%      0.00% |          19     18.27%     18.27% |           1      0.96%     19.23% |           0      0.00%     19.23% |           3      2.88%     22.12% |          22     21.15%     43.27% |          51     49.04%     92.31% |           3      2.88%     95.19% |           5      4.81%    100.00% |           0      0.00%    100.00% (Unspecified)
board.cache_hierarchy.ruby_system.RequestType.ST.miss_latency_hist_seqr::total          104                       (Unspecified)
board.cache_hierarchy.ruby_system.RequestType.IFETCH.latency_hist_seqr::bucket_size          128                       (Unspecified)
board.cache_hierarchy.ruby_system.RequestType.IFETCH.latency_hist_seqr::max_bucket         1279                       (Unspecified)
board.cache_hierarchy.ruby_system.RequestType.IFETCH.latency_hist_seqr::samples       657671                       (Unspecified)
board.cache_hierarchy.ruby_system.RequestType.IFETCH.latency_hist_seqr::mean     1.111820                       (Unspecified)
board.cache_hierarchy.ruby_system.RequestType.IFETCH.latency_hist_seqr::gmean     1.003317                       (Unspecified)
board.cache_hierarchy.ruby_system.RequestType.IFETCH.latency_hist_seqr::stdev     5.300192                       (Unspecified)
board.cache_hierarchy.ruby_system.RequestType.IFETCH.latency_hist_seqr |      657332     99.95%     99.95% |         326      0.05%    100.00% |           9      0.00%    100.00% |           0      0.00%    100.00% |           0      0.00%    100.00% |           0      0.00%    100.00% |           0      0.00%    100.00% |           0      0.00%    100.00% |           0      0.00%    100.00% |           4      0.00%    100.00% (Unspecified)
board.cache_hierarchy.ruby_system.RequestType.IFETCH.latency_hist_seqr::total       657671                       (Unspecified)
board.cache_hierarchy.ruby_system.RequestType.IFETCH.hit_latency_hist_seqr::bucket_size            1                       (Unspecified)
board.cache_hierarchy.ruby_system.RequestType.IFETCH.hit_latency_hist_seqr::max_bucket            9                       (Unspecified)
board.cache_hierarchy.ruby_system.RequestType.IFETCH.hit_latency_hist_seqr::samples       657228                       (Unspecified)
board.cache_hierarchy.ruby_system.RequestType.IFETCH.hit_latency_hist_seqr::mean            1                       (Unspecified)
board.cache_hierarchy.ruby_system.RequestType.IFETCH.hit_latency_hist_seqr::gmean            1                       (Unspecified)
board.cache_hierarchy.ruby_system.RequestType.IFETCH.hit_latency_hist_seqr |           0      0.00%      0.00% |      657228    100.00%    100.00% |           0      0.00%    100.00% |           0      0.00%    100.00% |           0      0.00%    100.00% |           0      0.00%    100.00% |           0      0.00%    100.00% |           0      0.00%    100.00% |           0      0.00%    100.00% |           0      0.00%    100.00% (Unspecified)
board.cache_hierarchy.ruby_system.RequestType.IFETCH.hit_latency_hist_seqr::total       657228                       (Unspecified)
board.cache_hierarchy.ruby_system.RequestType.IFETCH.miss_latency_hist_seqr::bucket_size          128                       (Unspecified)
board.cache_hierarchy.ruby_system.RequestType.IFETCH.miss_latency_hist_seqr::max_bucket         1279                       (Unspecified)
board.cache_hierarchy.ruby_system.RequestType.IFETCH.miss_latency_hist_seqr::samples          443                       (Unspecified)
[...]
board.processor.cores9.core.commitStats0.committedInstType::SimdMultAcc            0                       # Class of committed instruction. (Count)
board.processor.cores9.core.commitStats0.committedInstType::SimdMatMultAcc            0                       # Class of committed instruction. (Count)
board.processor.cores9.core.commitStats0.committedInstType::SimdShift            0                       # Class of committed instruction. (Count)
board.processor.cores9.core.commitStats0.committedInstType::SimdShiftAcc            0                       # Class of committed instruction. (Count)
board.processor.cores9.core.commitStats0.committedInstType::SimdDiv            0                       # Class of committed instruction. (Count)
board.processor.cores9.core.commitStats0.committedInstType::SimdSqrt            0                       # Class of committed instruction. (Count)
board.processor.cores9.core.commitStats0.committedInstType::SimdFloatAdd            0                       # Class of committed instruction. (Count)
board.processor.cores9.core.commitStats0.committedInstType::SimdFloatAlu            0                       # Class of committed instruction. (Count)
board.processor.cores9.core.commitStats0.committedInstType::SimdFloatCmp            0                       # Class of committed instruction. (Count)
board.processor.cores9.core.commitStats0.committedInstType::SimdFloatCvt            0                       # Class of committed instruction. (Count)
board.processor.cores9.core.commitStats0.committedInstType::SimdFloatDiv            0                       # Class of committed instruction. (Count)
board.processor.cores9.core.commitStats0.committedInstType::SimdFloatMisc            0                       # Class of committed instruction. (Count)
board.processor.cores9.core.commitStats0.committedInstType::SimdFloatMult            0                       # Class of committed instruction. (Count)
board.processor.cores9.core.commitStats0.committedInstType::SimdFloatMultAcc            0                       # Class of committed instruction. (Count)
board.processor.cores9.core.commitStats0.committedInstType::SimdFloatMatMultAcc            0                       # Class of committed instruction. (Count)
board.processor.cores9.core.commitStats0.committedInstType::SimdFloatSqrt            0                       # Class of committed instruction. (Count)
board.processor.cores9.core.commitStats0.committedInstType::SimdReduceAdd            0                       # Class of committed instruction. (Count)
board.processor.cores9.core.commitStats0.committedInstType::SimdReduceAlu            0                       # Class of committed instruction. (Count)
board.processor.cores9.core.commitStats0.committedInstType::SimdReduceCmp            0                       # Class of committed instruction. (Count)
board.processor.cores9.core.commitStats0.committedInstType::SimdFloatReduceAdd            0                       # Class of committed instruction. (Count)
board.processor.cores9.core.commitStats0.committedInstType::SimdFloatReduceCmp            0                       # Class of committed instruction. (Count)
board.processor.cores9.core.commitStats0.committedInstType::SimdAes            0                       # Class of committed instruction. (Count)
board.processor.cores9.core.commitStats0.committedInstType::SimdAesMix            0                       # Class of committed instruction. (Count)
board.processor.cores9.core.commitStats0.committedInstType::SimdSha1Hash            0                       # Class of committed instruction. (Count)
board.processor.cores9.core.commitStats0.committedInstType::SimdSha1Hash2            0                       # Class of committed instruction. (Count)
board.processor.cores9.core.commitStats0.committedInstType::SimdSha256Hash            0                       # Class of committed instruction. (Count)
board.processor.cores9.core.commitStats0.committedInstType::SimdSha256Hash2            0                       # Class of committed instruction. (Count)
board.processor.cores9.core.commitStats0.committedInstType::SimdShaSigma2            0                       # Class of committed instruction. (Count)
board.processor.cores9.core.commitStats0.committedInstType::SimdShaSigma3            0                       # Class of committed instruction. (Count)
board.processor.cores9.core.commitStats0.committedInstType::SimdPredAlu            0                       # Class of committed instruction. (Count)
board.processor.cores9.core.commitStats0.committedInstType::Matrix            0                       # Class of committed instruction. (Count)
board.processor.cores9.core.commitStats0.committedInstType::MatrixMov            0                       # Class of committed instruction. (Count)
board.processor.cores9.core.commitStats0.committedInstType::MatrixOP            0                       # Class of committed instruction. (Count)
board.processor.cores9.core.commitStats0.committedInstType::MemRead            0                       # Class of committed instruction. (Count)
board.processor.cores9.core.commitStats0.committedInstType::MemWrite            0                       # Class of committed instruction. (Count)
board.processor.cores9.core.commitStats0.committedInstType::FloatMemRead            0                       # Class of committed instruction. (Count)
board.processor.cores9.core.commitStats0.committedInstType::FloatMemWrite            0                       # Class of committed instruction. (Count)
board.processor.cores9.core.commitStats0.committedInstType::IprAccess            0                       # Class of committed instruction. (Count)
board.processor.cores9.core.commitStats0.committedInstType::InstPrefetch            0                       # Class of committed instruction. (Count)
board.processor.cores9.core.commitStats0.committedInstType::SimdUnitStrideLoad            0                       # Class of committed instruction. (Count)
board.processor.cores9.core.commitStats0.committedInstType::SimdUnitStrideStore            0                       # Class of committed instruction. (Count)
board.processor.cores9.core.commitStats0.committedInstType::SimdUnitStrideMaskLoad            0                       # Class of committed instruction. (Count)
board.processor.cores9.core.commitStats0.committedInstType::SimdUnitStrideMaskStore            0                       # Class of committed instruction. (Count)
board.processor.cores9.core.commitStats0.committedInstType::SimdStridedLoad            0                       # Class of committed instruction. (Count)
board.processor.cores9.core.commitStats0.committedInstType::SimdStridedStore            0                       # Class of committed instruction. (Count)
board.processor.cores9.core.commitStats0.committedInstType::SimdIndexedLoad            0                       # Class of committed instruction. (Count)
board.processor.cores9.core.commitStats0.committedInstType::SimdIndexedStore            0                       # Class of committed instruction. (Count)
board.processor.cores9.core.commitStats0.committedInstType::SimdWholeRegisterLoad            0                       # Class of committed instruction. (Count)
board.processor.cores9.core.commitStats0.committedInstType::SimdWholeRegisterStore            0                       # Class of committed instruction. (Count)
board.processor.cores9.core.commitStats0.committedInstType::SimdUnitStrideFaultOnlyFirstLoad            0                       # Class of committed instruction. (Count)
board.processor.cores9.core.commitStats0.committedInstType::SimdUnitStrideSegmentedLoad            0                       # Class of committed instruction. (Count)
board.processor.cores9.core.commitStats0.committedInstType::SimdUnitStrideSegmentedStore            0                       # Class of committed instruction. (Count)
board.processor.cores9.core.commitStats0.committedInstType::SimdExt            0                       # Class of committed instruction. (Count)
board.processor.cores9.core.commitStats0.committedInstType::SimdFloatExt            0                       # Class of committed instruction. (Count)
board.processor.cores9.core.commitStats0.committedInstType::SimdConfig            0                       # Class of committed instruction. (Count)
board.processor.cores9.core.commitStats0.committedInstType::total            0                       # Class of committed instruction. (Count)
board.processor.cores9.core.executeStats0.numInsts            0                       # Number of executed instructions (Count)
board.processor.cores9.core.executeStats0.numNop            0                       # Number of nop insts executed (Count)
board.processor.cores9.core.executeStats0.numBranches            0                       # Number of branches executed (Count)
board.processor.cores9.core.executeStats0.numLoadInsts            0                       # Number of load instructions executed (Count)
board.processor.cores9.core.executeStats0.numStoreInsts            0                       # Number of stores executed (Count)
board.processor.cores9.core.executeStats0.instRate          nan                       # Inst execution rate ((Count/Cycle))
board.processor.cores9.core.executeStats0.numFpRegWrites            0                       # Number of times the floating registers were written (Count)
board.processor.cores9.core.executeStats0.numMemRefs            0                       # Number of memory refs (Count)
board.processor.cores9.core.executeStats0.numVecAluAccesses            0                       # Number of vector alu accesses (Count)
board.processor.cores9.core.executeStats0.numDiscardedOps            0                       # Number of ops (including micro ops) which were discarded before commit (Count)
board.processor.cores9.core.fetch.nisnDist::samples            0                       # Number of instructions fetched each cycle (Total) (Count)
board.processor.cores9.core.fetch.nisnDist::mean          nan                       # Number of instructions fetched each cycle (Total) (Count)
board.processor.cores9.core.fetch.nisnDist::stdev          nan                       # Number of instructions fetched each cycle (Total) (Count)
board.processor.cores9.core.fetch.nisnDist::underflows            0                       # Number of instructions fetched each cycle (Total) (Count)
board.processor.cores9.core.fetch.nisnDist::0            0                       # Number of instructions fetched each cycle (Total) (Count)
board.processor.cores9.core.fetch.nisnDist::1            0                       # Number of instructions fetched each cycle (Total) (Count)
board.processor.cores9.core.fetch.nisnDist::2            0                       # Number of instructions fetched each cycle (Total) (Count)
board.processor.cores9.core.fetch.nisnDist::3            0                       # Number of instructions fetched each cycle (Total) (Count)
board.processor.cores9.core.fetch.nisnDist::4            0                       # Number of instructions fetched each cycle (Total) (Count)
board.processor.cores9.core.fetch.nisnDist::5            0                       # Number of instructions fetched each cycle (Total) (Count)
board.processor.cores9.core.fetch.nisnDist::6            0                       # Number of instructions fetched each cycle (Total) (Count)
board.processor.cores9.core.fetch.nisnDist::7            0                       # Number of instructions fetched each cycle (Total) (Count)
board.processor.cores9.core.fetch.nisnDist::8            0                       # Number of instructions fetched each cycle (Total) (Count)
board.processor.cores9.core.fetch.nisnDist::overflows            0                       # Number of instructions fetched each cycle (Total) (Count)
board.processor.cores9.core.fetch.nisnDist::min_value            0                       # Number of instructions fetched each cycle (Total) (Count)
board.processor.cores9.core.fetch.nisnDist::max_value            0                       # Number of instructions fetched each cycle (Total) (Count)
board.processor.cores9.core.fetch.nisnDist::total            0                       # Number of instructions fetched each cycle (Total) (Count)
board.processor.cores9.core.fetch.idleRate          nan                       # Ratio of cycles fetch was idle (Ratio)
board.processor.cores9.core.fetchStats0.numInsts            0                       # Number of instructions fetched (thread level) (Count)
board.processor.cores9.core.fetchStats0.numOps            0                       # Number of ops (including micro ops) fetched (thread level) (Count)
board.processor.cores9.core.fetchStats0.fetchRate          nan                       # Number of inst fetches per cycle ((Count/Cycle))
board.processor.cores9.core.fetchStats0.branchRate          nan                       # Number of branch fetches per cycle (Ratio)
board.processor.cores9.core.fetchStats0.numFetchSuspends            0                       # Number of times Execute suspended instruction fetching (Count)
board.processor.cores9.core.iew.idleCycles            0                       # Number of cycles IEW is idle (Cycle)
board.processor.cores9.core.iew.squashCycles            0                       # Number of cycles IEW is squashing (Cycle)
board.processor.cores9.core.iew.blockCycles            0                       # Number of cycles IEW is blocking (Cycle)
board.processor.cores9.core.iew.unblockCycles            0                       # Number of cycles IEW is unblocking (Cycle)
board.processor.cores9.core.iew.dispatchedInsts            0                       # Number of instructions dispatched to IQ (Count)
board.processor.cores9.core.iew.dispSquashedInsts            0                       # Number of squashed instructions skipped by dispatch (Count)
board.processor.cores9.core.iew.dispLoadInsts            0                       # Number of dispatched load instructions (Count)
board.processor.cores9.core.iew.dispStoreInsts            0                       # Number of dispatched store instructions (Count)
board.processor.cores9.core.iew.dispNonSpecInsts            0                       # Number of dispatched non-speculative instructions (Count)
board.processor.cores9.core.iew.iqFullEvents            0                       # Number of times the IQ has become full, causing a stall (Count)
board.processor.cores9.core.iew.lsqFullEvents            0                       # Number of times the LSQ has become full, causing a stall (Count)
board.processor.cores9.core.iew.memOrderViolationEvents            0                       # Number of memory order violations (Count)
board.processor.cores9.core.iew.predictedTakenIncorrect            0                       # Number of branches that were predicted taken incorrectly (Count)
board.processor.cores9.core.iew.predictedNotTakenIncorrect            0                       # Number of branches that were predicted not taken incorrectly (Count)
board.processor.cores9.core.iew.branchMispredicts            0                       # Number of branch mispredicts detected at execute (Count)
board.processor.cores9.core.iew.instsToCommit            0                       # Cumulative count of insts sent to commit (Count)
board.processor.cores9.core.iew.writebackCount            0                       # Cumulative count of insts written-back (Count)
board.processor.cores9.core.iew.producerInst            0                       # Number of instructions producing a value (Count)
board.processor.cores9.core.iew.consumerInst            0                       # Number of instructions consuming a value (Count)
board.processor.cores9.core.iew.wbRate            nan                       # Insts written-back per cycle ((Count/Cycle))
board.processor.cores9.core.iew.wbFanout          nan                       # Average fanout of values written-back ((Count/Count))
board.processor.cores9.core.interrupts.clk_domain.clock         5328                       # Clock period in ticks (Tick)
board.processor.cores9.core.lsq0.forwLoads            0                       # Number of loads that had data forwarded from stores (Count)
board.processor.cores9.core.lsq0.squashedLoads            0                       # Number of loads squashed (Count)
board.processor.cores9.core.lsq0.ignoredResponses            0                       # Number of memory responses ignored because the instruction is squashed (Count)
board.processor.cores9.core.lsq0.memOrderViolation            0                       # Number of memory ordering violations (Count)
board.processor.cores9.core.lsq0.squashedStores            0                       # Number of stores squashed (Count)
board.processor.cores9.core.lsq0.rescheduledLoads            0                       # Number of loads that were rescheduled (Count)
board.processor.cores9.core.lsq0.blockedByCache            0                       # Number of times an access to memory failed due to the cache being blocked (Count)
board.processor.cores9.core.mmu.dtb.rdAccesses            0                       # TLB accesses on read requests (Count)
board.processor.cores9.core.mmu.dtb.wrAccesses            0                       # TLB accesses on write requests (Count)
board.processor.cores9.core.mmu.dtb.rdMisses            0                       # TLB misses on read requests (Count)
board.processor.cores9.core.mmu.dtb.wrMisses            0                       # TLB misses on write requests (Count)
board.processor.cores9.core.mmu.dtb.walker.power_state.pwrStateResidencyTicks::UNDEFINED   1121558652                       # Cumulative time (in ticks) in various power states (Tick)
board.processor.cores9.core.mmu.itb.rdAccesses            0                       # TLB accesses on read requests (Count)
board.processor.cores9.core.mmu.itb.wrAccesses            0                       # TLB accesses on write requests (Count)
board.processor.cores9.core.mmu.itb.rdMisses            0                       # TLB misses on read requests (Count)
board.processor.cores9.core.mmu.itb.wrMisses            0                       # TLB misses on write requests (Count)
board.processor.cores9.core.mmu.itb.walker.power_state.pwrStateResidencyTicks::UNDEFINED   1121558652                       # Cumulative time (in ticks) in various power states (Tick)
board.processor.cores9.core.power_state.pwrStateResidencyTicks::ON   1121558652                       # Cumulative time (in ticks) in various power states (Tick)
board.processor.cores9.core.rename.serializeStallCycles            0                       # count of cycles rename stalled for serializing inst (Cycle)
board.processor.cores9.core.rename.serializing            0                       # count of serializing insts renamed (Count)
board.processor.cores9.core.rename.tempSerializing            0                       # count of temporary serializing insts renamed (Count)
board.processor.cores9.core.rename.skidInsts            0                       # count of insts added to the skid buffer (Count)
board.processor.cores9.core.rob.reads               0                       # The number of ROB reads (Count)
board.processor.cores9.core.rob.writes              0                       # The number of ROB writes (Count)
board.processor.cores9.core.thread_0.numInsts            0                       # Number of Instructions committed (Count)
board.processor.cores9.core.thread_0.numOps            0                       # Number of Ops committed (Count)
board.processor.cores9.core.thread_0.numMemRefs            0                       # Number of Memory References (Count)
board.workload.inst.arm                             0                       # number of arm instructions executed (Count)
board.workload.inst.quiesce                         0                       # number of quiesce instructions executed (Count)

---------- End Simulation Statistics   ----------
